<?xml version="1.0" encoding="UTF-8"?>
<configuration xmlns:xsi="http://www.w3.org/2001/XMLSchema-instance" xsi:noNamespaceSchemaLocation="http://sumo.dlr.de/xsd/config.xsd">

    <input>
        <net-file value="2map.net.xml"/> 
        <route-files value="routes.rou.xml"/> 
        <additional-files value="MenJiaWeiZhi.add.xml"/> 
    </input>

    <time>
        <begin value="0"/>
        <end value="3600"/>
    </time>



    <gui_only>
        <start value="t"/>
        <quit-on-end value="t"/>
    </gui_only>
</configuration>