<routes>
    <!-- 定义车辆类型 -->
    <vType id="passenger" accel="2.6" decel="4.5" sigma="0.5" length="5.0" maxSpeed="40.0"/>


    <!-- 定义路线 -->
    <route id="routeS1-2" edges="S12"/>
    <route id="routeS2-3" edges="S13 S14 S15 S16 S17 S18 S19 S20-1 S21 S22 S23"/>
    <route id="routeS3-4"
           edges="S24 S25 S26 S27 S28 S29 S30 S31 S32 S33 S34 S35-1 S36 S37 S38 S39 S40 S41 S42 S43 S44 S45 S46 S47 S48 S49-1 S50 S51 S52 S53 S54 S55 S56 S57 S58 S59"/>
    <route id="routeS4-5" edges="S60 S61 S62 S63 S64"/>
    <route id="routeS5-6" edges="S65 S66 S67 S68-1 S69 S70-1 S71 S72 S73 S74 S75 S76 S77"/>
    <route id="routeS6-7" edges="S78 S79-1 S79-2 S79-3 S80 "/>
    <route id="routeS7-8" edges="S81"/>
    <route id="routeS8-9" edges="S82 S83 S84 S85 S86 "/>
    <route id="route1SF3" edges="E13 E9 E8 S79-3 S80"/>
    <route id="routeCAD10-1"
           edges="S65 S66 S67 S68-1 S69 397003194 499510832#1 -499510832#1 -499510832#0 -499510833 -397003190 397003192 X68 X67-1 X66 X65 X64"/>
    <route id="routeFWQ-1" edges="S65 S66 S67 E49 E11 E7 S69 S70-1 S71 S72 S73 S74 S75 S76 S77"/>
    <route id="routeLJ2"
           edges="312332518#1 S36 S37 S38 S39 S40 S41 S42 S43 S44 S45 S46 S47 S48 S49-1 S50 S51 S52 S53 S54 S55 S56 S57 S58 S59"/>

    <route id="routeX1-2" edges="X80"/>
    <route id="routeX2-3" edges="X79 X78 X77 "/>
    <route id="routeX3-4" edges="X76 X75 X74 X73 X72 X71 X70 X69-1 X68 X67-1 X66 X65 X64"/>
    <route id="routeX4-5" edges="X63 X62 X61 X60 X59"/>
    <route id="routeX5-6" edges="X58 X57 X56 X55 X54 X53 X52 X51.5 X51 X50 X49"/>
    <route id="routeX6-7"
           edges="X48-1 X47 X46 X45 X44 X43 X42 X41 X40 X39 X38 X37 X36 X35 X34 X33 X32 X31 X30 X29 X28 X27 X26 X25 X24 X23"/>
    <route id="routeX7-8" edges="X22 X21 X20 X19-1 X18 X17 X16 X15 X14"/>
    <route id="routeX8-9" edges="X13 X12 X11"/>
    <route id="route1SF4" edges="E6 X77"/>
    <route id="routeCAD10"
           edges="X76 X75 X74 X73 X72 X71 X70  397003193 397003190 499510833 499510832#0 499510832#1 397003195 S71 S72 S73 S74 S75 S76 S77"/>
    <route id="routeFWQ" edges="X76 X75 X74 X73 X72 X71 X70 X69-1 X68 E50 E12 E10 X66 X65 X64 "/>


    <!-- 定义流量 -->

    <flow id="flowS1" begin="0" end="3600" type="passenger" route="routeS1-2" probability="1"/>
    <flow id="flowS2" begin="0" end="3600" type="passenger" route="routeS2-3" probability="1"/>
    <flow id="flowS3" begin="0" end="3600" type="passenger" route="routeS3-4" probability="1"/>
    <flow id="flowS4" begin="0" end="3600" type="passenger" route="routeS4-5" probability="1"/>
    <flow id="flowS5" begin="0" end="3600" type="passenger" route="routeS5-6" probability="1"/>
    <flow id="flowS6" begin="0" end="3600" type="passenger" route="routeS6-7" probability="1"/>>
    <flow id="flowS7" begin="0" end="3600" type="passenger" route="routeS7-8" probability="1"/>
    <flow id="flowS8" begin="0" end="3600" type="passenger" route="routeS8-9" probability="1"/>
    <flow id="flow1SF3" begin="0" end="3600" type="passenger" route="route1SF3" probability="1"/>
    <flow id="flowCAD10-1" begin="0" end="3600" type="passenger" route="routeCAD10-1" probability="1"/>
    <flow id="flowFWQ-1" begin="0" end="3600" type="passenger" route="routeFWQ-1" probability="1"/>
    <flow id="flowLJ2" begin="0" end="3600" type="passenger" route="routeLJ2" probability="1"/>


    <flow id="flowX1" begin="0" end="3600" type="passenger" route="routeX1-2" period="exp(0.1)"/>
    <flow id="flowX2" begin="0" end="3600" type="passenger" route="routeX2-3" period="exp(0.1)"/>
    <flow id="flowX3" begin="0" end="3600" type="passenger" route="routeX3-4" period="exp(0.1)"/>
    <flow id="flowX4" begin="0" end="3600" type="passenger" route="routeX4-5" period="exp(0.1)"/>
    <flow id="flowX5" begin="0" end="3600" type="passenger" route="routeX5-6" period="exp(0.1)"/>
    <flow id="flowX6" begin="0" end="3600" type="passenger" route="routeX6-7" period="exp(0.1)"/>
    <flow id="flowX7" begin="0" end="3600" type="passenger" route="routeX7-8" period="exp(0.1)"/>
    <flow id="flowX8" begin="0" end="3600" type="passenger" route="routeX8-9" period="exp(0.1)"/>
    <flow id="flow1SF4" begin="0" end="3600" type="passenger" route="route1SF4" period="exp(0.1)"/>
    <flow id="flowCAD10" begin="0" end="3600" type="passenger" route="routeCAD10" period="exp(0.1)"/>
    <flow id="flowFWQ" begin="0" end="3600" type="passenger" route="routeFWQ" period="exp(0.1)"/>


</routes>